# avogadro generated ORCA file
# 
!B3LYP DEF2-TZVP CPCM(HEXANE) 
%TDDFT
   NROOTS 30
END

* xyz 0 5
   C     -0.016700    1.378100    0.009600
   C      0.002100   -0.004100    0.002000
   C      1.170900    2.085500    0.002100
   C      1.208400   -0.678900   -0.013200
   C      2.396000    0.028500   -0.021200
   C      2.377300    1.410700   -0.013100
   H     -0.959200    1.905400    0.017000
   H     -0.925800   -0.556700    0.008300
   H      1.156300    3.165400    0.007700
   H      1.223100   -1.758800   -0.018400
   H      3.338500   -0.498700   -0.032400
   H      3.305100    1.963400   -0.019700
*


